Version 4
SHEET 1 880 680
WIRE 240 32 96 32
WIRE 448 80 384 80
WIRE 528 80 448 80
WIRE 384 96 384 80
WIRE 384 96 368 96
WIRE -176 128 -288 128
WIRE 240 128 240 112
WIRE 240 128 -176 128
WIRE 528 128 528 80
WIRE 240 144 240 128
WIRE -288 176 -288 128
WIRE 384 176 368 176
WIRE 240 224 192 224
WIRE 384 256 384 176
WIRE 528 256 528 224
WIRE 528 256 384 256
WIRE 192 272 192 224
WIRE 96 288 96 32
WIRE 192 288 192 272
WIRE 384 304 384 256
WIRE 96 336 96 288
WIRE 128 336 96 336
WIRE -288 352 -288 256
WIRE 192 400 192 384
WIRE 192 432 192 400
FLAG 384 304 0
FLAG 192 432 0
FLAG -288 352 0
FLAG 96 288 nb
FLAG 192 272 nc
FLAG 192 400 ne
FLAG 448 80 HV
FLAG -176 128 vcc
SYMBOL ind2 224 16 R0
WINDOW 0 -37 35 Left 2
WINDOW 3 -85 82 Left 2
SYMATTR InstName L1
SYMATTR Value 111µH
SYMATTR Type ind
SYMATTR SpiceLine Rser=1
SYMBOL ind2 384 192 R180
WINDOW 0 -40 84 Left 2
WINDOW 3 -75 43 Left 2
SYMATTR InstName L3
SYMATTR Value 999µH
SYMATTR Type ind
SYMBOL npn 128 288 R0
SYMATTR InstName Q1
SYMATTR Value BD139
SYMBOL voltage -288 160 R0
WINDOW 123 0 0 Left 2
WINDOW 39 24 124 Left 2
SYMATTR InstName V1
SYMATTR Value PULSE(0 5 0.1s 0.01s)
SYMBOL ind2 224 128 R0
WINDOW 0 -45 34 Left 2
WINDOW 3 -81 61 Left 2
SYMATTR InstName L2
SYMATTR Value 111µH
SYMATTR Type ind
SYMBOL Misc\\neonbulb 528 176 R0
SYMATTR InstName U1
TEXT -168 328 Left 2 !.tran 0.2s
TEXT 272 32 Left 2 !K1 L1 L2 L3 0.9
