Version 4
SHEET 1 880 680
WIRE 240 32 96 32
WIRE 464 96 464 64
WIRE 464 96 368 96
WIRE -128 128 -128 96
WIRE -128 128 -288 128
WIRE 240 128 240 112
WIRE 240 128 -128 128
WIRE 240 144 240 128
WIRE -288 176 -288 128
WIRE 384 176 368 176
WIRE 240 224 192 224
WIRE 192 288 192 224
WIRE 384 304 384 176
WIRE 96 336 96 32
WIRE 128 336 96 336
WIRE -288 352 -288 256
WIRE 192 432 192 384
FLAG 384 304 0
FLAG 464 64 HV
FLAG 192 432 0
FLAG -128 96 VCC
FLAG -288 352 0
SYMBOL ind 224 16 R0
SYMATTR InstName L1
SYMBOL ind 224 128 R0
SYMATTR InstName L2
SYMBOL ind 384 192 R180
WINDOW 0 36 80 Left 2
WINDOW 3 36 40 Left 2
SYMATTR InstName L3
SYMBOL npn 128 288 R0
SYMATTR InstName Q1
SYMBOL Misc\\battery -288 160 R0
SYMATTR InstName V1
