Version 4
SHEET 1 880 680
WIRE 240 32 96 32
WIRE 384 80 384 64
WIRE 528 80 384 80
WIRE 384 96 384 80
WIRE 384 96 368 96
WIRE 528 112 528 80
WIRE -128 128 -128 96
WIRE -128 128 -288 128
WIRE 240 128 240 112
WIRE 240 128 -128 128
WIRE 240 144 240 128
WIRE -288 176 -288 128
WIRE 384 176 368 176
WIRE 240 224 192 224
WIRE 384 256 384 176
WIRE 528 256 528 192
WIRE 528 256 384 256
WIRE 192 272 192 224
WIRE 96 288 96 32
WIRE 192 288 192 272
WIRE 384 304 384 256
WIRE 96 336 96 288
WIRE 128 336 96 336
WIRE -288 352 -288 256
WIRE 192 416 192 384
WIRE 192 432 192 416
FLAG 384 304 0
FLAG 384 64 HV
FLAG 192 432 0
FLAG -128 96 VCC
FLAG -288 352 0
FLAG 96 288 nb
FLAG 192 272 nk
FLAG 192 416 ne
SYMBOL ind2 224 16 R0
WINDOW 0 -37 35 Left 2
WINDOW 3 -56 80 Left 2
SYMATTR InstName L1
SYMATTR Value 1µH
SYMATTR Type ind
SYMATTR SpiceLine Rser=1
SYMBOL ind2 384 192 R180
WINDOW 0 -40 84 Left 2
WINDOW 3 -54 43 Left 2
SYMATTR InstName L3
SYMATTR Value 1µH
SYMATTR Type ind
SYMBOL npn 128 288 R0
SYMATTR InstName Q1
SYMATTR Value BD139
SYMBOL voltage -288 160 R0
WINDOW 123 0 0 Left 2
WINDOW 39 0 0 Left 2
SYMATTR InstName V1
SYMATTR Value PULSE(0 5 0.5s 0.1s)
SYMBOL ind2 256 240 R180
WINDOW 0 36 80 Left 2
WINDOW 3 36 40 Left 2
SYMATTR InstName L2
SYMATTR Value 1µH
SYMATTR Type ind
SYMATTR SpiceLine Rser=1
SYMBOL res 512 96 R0
SYMATTR InstName R1
SYMATTR Value 999G
TEXT -168 328 Left 2 !.tran 1s
